
---------- Begin Simulation Statistics ----------
sim_seconds                                  0.007777                       # Number of seconds simulated
sim_ticks                                  7777389500                       # Number of ticks simulated
final_tick                                 8757115500                       # Number of ticks from beginning of simulation (restored from checkpoints and never reset)
sim_freq                                 1000000000000                       # Frequency of simulated ticks
host_inst_rate                                 132649                       # Simulator instruction rate (inst/s)
host_op_rate                                   152137                       # Simulator op (including micro ops) rate (op/s)
host_tick_rate                               64820927                       # Simulator tick rate (ticks/s)
host_mem_usage                                4673792                       # Number of bytes of host memory used
host_seconds                                   119.98                       # Real time elapsed on the host
sim_insts                                    15915562                       # Number of instructions simulated
sim_ops                                      18253837                       # Number of ops (including micro ops) simulated
system.voltage_domain.voltage                       1                       # Voltage in Volts
system.clk_domain.clock                          1000                       # Clock period in ticks
system.mem_ctrls.bytes_read::switch_cpus0.inst          128                       # Number of bytes read from this memory
system.mem_ctrls.bytes_read::switch_cpus0.data      3691008                       # Number of bytes read from this memory
system.mem_ctrls.bytes_read::switch_cpus1.inst          128                       # Number of bytes read from this memory
system.mem_ctrls.bytes_read::switch_cpus1.data      3665728                       # Number of bytes read from this memory
system.mem_ctrls.bytes_read::switch_cpus2.inst          128                       # Number of bytes read from this memory
system.mem_ctrls.bytes_read::switch_cpus2.data      3712896                       # Number of bytes read from this memory
system.mem_ctrls.bytes_read::switch_cpus3.inst          128                       # Number of bytes read from this memory
system.mem_ctrls.bytes_read::switch_cpus3.data      3655360                       # Number of bytes read from this memory
system.mem_ctrls.bytes_read::switch_cpus4.inst          128                       # Number of bytes read from this memory
system.mem_ctrls.bytes_read::switch_cpus4.data      3695040                       # Number of bytes read from this memory
system.mem_ctrls.bytes_read::switch_cpus5.inst          128                       # Number of bytes read from this memory
system.mem_ctrls.bytes_read::switch_cpus5.data      3721600                       # Number of bytes read from this memory
system.mem_ctrls.bytes_read::switch_cpus6.inst          128                       # Number of bytes read from this memory
system.mem_ctrls.bytes_read::switch_cpus6.data      3651712                       # Number of bytes read from this memory
system.mem_ctrls.bytes_read::switch_cpus7.inst          128                       # Number of bytes read from this memory
system.mem_ctrls.bytes_read::switch_cpus7.data      3664960                       # Number of bytes read from this memory
system.mem_ctrls.bytes_read::total           29459328                       # Number of bytes read from this memory
system.mem_ctrls.bytes_inst_read::switch_cpus0.inst          128                       # Number of instructions bytes read from this memory
system.mem_ctrls.bytes_inst_read::switch_cpus1.inst          128                       # Number of instructions bytes read from this memory
system.mem_ctrls.bytes_inst_read::switch_cpus2.inst          128                       # Number of instructions bytes read from this memory
system.mem_ctrls.bytes_inst_read::switch_cpus3.inst          128                       # Number of instructions bytes read from this memory
system.mem_ctrls.bytes_inst_read::switch_cpus4.inst          128                       # Number of instructions bytes read from this memory
system.mem_ctrls.bytes_inst_read::switch_cpus5.inst          128                       # Number of instructions bytes read from this memory
system.mem_ctrls.bytes_inst_read::switch_cpus6.inst          128                       # Number of instructions bytes read from this memory
system.mem_ctrls.bytes_inst_read::switch_cpus7.inst          128                       # Number of instructions bytes read from this memory
system.mem_ctrls.bytes_inst_read::total          1024                       # Number of instructions bytes read from this memory
system.mem_ctrls.bytes_written::writebacks     29445376                       # Number of bytes written to this memory
system.mem_ctrls.bytes_written::total        29445376                       # Number of bytes written to this memory
system.mem_ctrls.num_reads::switch_cpus0.inst            2                       # Number of read requests responded to by this memory
system.mem_ctrls.num_reads::switch_cpus0.data        57672                       # Number of read requests responded to by this memory
system.mem_ctrls.num_reads::switch_cpus1.inst            2                       # Number of read requests responded to by this memory
system.mem_ctrls.num_reads::switch_cpus1.data        57277                       # Number of read requests responded to by this memory
system.mem_ctrls.num_reads::switch_cpus2.inst            2                       # Number of read requests responded to by this memory
system.mem_ctrls.num_reads::switch_cpus2.data        58014                       # Number of read requests responded to by this memory
system.mem_ctrls.num_reads::switch_cpus3.inst            2                       # Number of read requests responded to by this memory
system.mem_ctrls.num_reads::switch_cpus3.data        57115                       # Number of read requests responded to by this memory
system.mem_ctrls.num_reads::switch_cpus4.inst            2                       # Number of read requests responded to by this memory
system.mem_ctrls.num_reads::switch_cpus4.data        57735                       # Number of read requests responded to by this memory
system.mem_ctrls.num_reads::switch_cpus5.inst            2                       # Number of read requests responded to by this memory
system.mem_ctrls.num_reads::switch_cpus5.data        58150                       # Number of read requests responded to by this memory
system.mem_ctrls.num_reads::switch_cpus6.inst            2                       # Number of read requests responded to by this memory
system.mem_ctrls.num_reads::switch_cpus6.data        57058                       # Number of read requests responded to by this memory
system.mem_ctrls.num_reads::switch_cpus7.inst            2                       # Number of read requests responded to by this memory
system.mem_ctrls.num_reads::switch_cpus7.data        57265                       # Number of read requests responded to by this memory
system.mem_ctrls.num_reads::total              460302                       # Number of read requests responded to by this memory
system.mem_ctrls.num_writes::writebacks        460084                       # Number of write requests responded to by this memory
system.mem_ctrls.num_writes::total             460084                       # Number of write requests responded to by this memory
system.mem_ctrls.bw_read::switch_cpus0.inst        16458                       # Total read bandwidth from this memory (bytes/s)
system.mem_ctrls.bw_read::switch_cpus0.data    474581863                       # Total read bandwidth from this memory (bytes/s)
system.mem_ctrls.bw_read::switch_cpus1.inst        16458                       # Total read bandwidth from this memory (bytes/s)
system.mem_ctrls.bw_read::switch_cpus1.data    471331415                       # Total read bandwidth from this memory (bytes/s)
system.mem_ctrls.bw_read::switch_cpus2.inst        16458                       # Total read bandwidth from this memory (bytes/s)
system.mem_ctrls.bw_read::switch_cpus2.data    477396175                       # Total read bandwidth from this memory (bytes/s)
system.mem_ctrls.bw_read::switch_cpus3.inst        16458                       # Total read bandwidth from this memory (bytes/s)
system.mem_ctrls.bw_read::switch_cpus3.data    469998320                       # Total read bandwidth from this memory (bytes/s)
system.mem_ctrls.bw_read::switch_cpus4.inst        16458                       # Total read bandwidth from this memory (bytes/s)
system.mem_ctrls.bw_read::switch_cpus4.data    475100289                       # Total read bandwidth from this memory (bytes/s)
system.mem_ctrls.bw_read::switch_cpus5.inst        16458                       # Total read bandwidth from this memory (bytes/s)
system.mem_ctrls.bw_read::switch_cpus5.data    478515317                       # Total read bandwidth from this memory (bytes/s)
system.mem_ctrls.bw_read::switch_cpus6.inst        16458                       # Total read bandwidth from this memory (bytes/s)
system.mem_ctrls.bw_read::switch_cpus6.data    469529268                       # Total read bandwidth from this memory (bytes/s)
system.mem_ctrls.bw_read::switch_cpus7.inst        16458                       # Total read bandwidth from this memory (bytes/s)
system.mem_ctrls.bw_read::switch_cpus7.data    471232667                       # Total read bandwidth from this memory (bytes/s)
system.mem_ctrls.bw_read::total            3787816979                       # Total read bandwidth from this memory (bytes/s)
system.mem_ctrls.bw_inst_read::switch_cpus0.inst        16458                       # Instruction read bandwidth from this memory (bytes/s)
system.mem_ctrls.bw_inst_read::switch_cpus1.inst        16458                       # Instruction read bandwidth from this memory (bytes/s)
system.mem_ctrls.bw_inst_read::switch_cpus2.inst        16458                       # Instruction read bandwidth from this memory (bytes/s)
system.mem_ctrls.bw_inst_read::switch_cpus3.inst        16458                       # Instruction read bandwidth from this memory (bytes/s)
system.mem_ctrls.bw_inst_read::switch_cpus4.inst        16458                       # Instruction read bandwidth from this memory (bytes/s)
system.mem_ctrls.bw_inst_read::switch_cpus5.inst        16458                       # Instruction read bandwidth from this memory (bytes/s)
system.mem_ctrls.bw_inst_read::switch_cpus6.inst        16458                       # Instruction read bandwidth from this memory (bytes/s)
system.mem_ctrls.bw_inst_read::switch_cpus7.inst        16458                       # Instruction read bandwidth from this memory (bytes/s)
system.mem_ctrls.bw_inst_read::total           131664                       # Instruction read bandwidth from this memory (bytes/s)
system.mem_ctrls.bw_write::writebacks      3786023061                       # Write bandwidth from this memory (bytes/s)
system.mem_ctrls.bw_write::total           3786023061                       # Write bandwidth from this memory (bytes/s)
system.mem_ctrls.bw_total::writebacks      3786023061                       # Total bandwidth to/from this memory (bytes/s)
system.mem_ctrls.bw_total::switch_cpus0.inst        16458                       # Total bandwidth to/from this memory (bytes/s)
system.mem_ctrls.bw_total::switch_cpus0.data    474581863                       # Total bandwidth to/from this memory (bytes/s)
system.mem_ctrls.bw_total::switch_cpus1.inst        16458                       # Total bandwidth to/from this memory (bytes/s)
system.mem_ctrls.bw_total::switch_cpus1.data    471331415                       # Total bandwidth to/from this memory (bytes/s)
system.mem_ctrls.bw_total::switch_cpus2.inst        16458                       # Total bandwidth to/from this memory (bytes/s)
system.mem_ctrls.bw_total::switch_cpus2.data    477396175                       # Total bandwidth to/from this memory (bytes/s)
system.mem_ctrls.bw_total::switch_cpus3.inst        16458                       # Total bandwidth to/from this memory (bytes/s)
system.mem_ctrls.bw_total::switch_cpus3.data    469998320                       # Total bandwidth to/from this memory (bytes/s)
system.mem_ctrls.bw_total::switch_cpus4.inst        16458                       # Total bandwidth to/from this memory (bytes/s)
system.mem_ctrls.bw_total::switch_cpus4.data    475100289                       # Total bandwidth to/from this memory (bytes/s)
system.mem_ctrls.bw_total::switch_cpus5.inst        16458                       # Total bandwidth to/from this memory (bytes/s)
system.mem_ctrls.bw_total::switch_cpus5.data    478515317                       # Total bandwidth to/from this memory (bytes/s)
system.mem_ctrls.bw_total::switch_cpus6.inst        16458                       # Total bandwidth to/from this memory (bytes/s)
system.mem_ctrls.bw_total::switch_cpus6.data    469529268                       # Total bandwidth to/from this memory (bytes/s)
system.mem_ctrls.bw_total::switch_cpus7.inst        16458                       # Total bandwidth to/from this memory (bytes/s)
system.mem_ctrls.bw_total::switch_cpus7.data    471232667                       # Total bandwidth to/from this memory (bytes/s)
system.mem_ctrls.bw_total::total           7573840040                       # Total bandwidth to/from this memory (bytes/s)
system.mem_ctrls.readReqs                      460305                       # Number of read requests accepted
system.mem_ctrls.writeReqs                     460084                       # Number of write requests accepted
system.mem_ctrls.readBursts                    460305                       # Number of DRAM read bursts, including those serviced by the write queue
system.mem_ctrls.writeBursts                   460084                       # Number of DRAM write bursts, including those merged in the write queue
system.mem_ctrls.bytesReadDRAM               29459456                       # Total number of bytes read from DRAM
system.mem_ctrls.bytesReadWrQ                       0                       # Total number of bytes read from write queue
system.mem_ctrls.bytesWritten                29443072                       # Total number of bytes written to DRAM
system.mem_ctrls.bytesReadSys                29459520                       # Total read bytes from the system interface side
system.mem_ctrls.bytesWrittenSys             29445376                       # Total written bytes from the system interface side
system.mem_ctrls.servicedByWrQ                      0                       # Number of DRAM read bursts serviced by the write queue
system.mem_ctrls.mergedWrBursts                     0                       # Number of DRAM write bursts merged with an existing one
system.mem_ctrls.neitherReadNorWriteReqs            0                       # Number of requests that are neither read nor write
system.mem_ctrls.perBankRdBursts::0              7256                       # Per bank write bursts
system.mem_ctrls.perBankRdBursts::1              7181                       # Per bank write bursts
system.mem_ctrls.perBankRdBursts::2              7223                       # Per bank write bursts
system.mem_ctrls.perBankRdBursts::3              7257                       # Per bank write bursts
system.mem_ctrls.perBankRdBursts::4              7168                       # Per bank write bursts
system.mem_ctrls.perBankRdBursts::5              7181                       # Per bank write bursts
system.mem_ctrls.perBankRdBursts::6              7223                       # Per bank write bursts
system.mem_ctrls.perBankRdBursts::7              7297                       # Per bank write bursts
system.mem_ctrls.perBankRdBursts::8              7298                       # Per bank write bursts
system.mem_ctrls.perBankRdBursts::9              7247                       # Per bank write bursts
system.mem_ctrls.perBankRdBursts::10             7223                       # Per bank write bursts
system.mem_ctrls.perBankRdBursts::11             7296                       # Per bank write bursts
system.mem_ctrls.perBankRdBursts::12             7198                       # Per bank write bursts
system.mem_ctrls.perBankRdBursts::13             7181                       # Per bank write bursts
system.mem_ctrls.perBankRdBursts::14             7223                       # Per bank write bursts
system.mem_ctrls.perBankRdBursts::15             7297                       # Per bank write bursts
system.mem_ctrls.perBankRdBursts::16             7267                       # Per bank write bursts
system.mem_ctrls.perBankRdBursts::17             7161                       # Per bank write bursts
system.mem_ctrls.perBankRdBursts::18             7095                       # Per bank write bursts
system.mem_ctrls.perBankRdBursts::19             7168                       # Per bank write bursts
system.mem_ctrls.perBankRdBursts::20             7168                       # Per bank write bursts
system.mem_ctrls.perBankRdBursts::21             7181                       # Per bank write bursts
system.mem_ctrls.perBankRdBursts::22             7168                       # Per bank write bursts
system.mem_ctrls.perBankRdBursts::23             7169                       # Per bank write bursts
system.mem_ctrls.perBankRdBursts::24             7170                       # Per bank write bursts
system.mem_ctrls.perBankRdBursts::25             7181                       # Per bank write bursts
system.mem_ctrls.perBankRdBursts::26             7168                       # Per bank write bursts
system.mem_ctrls.perBankRdBursts::27             7168                       # Per bank write bursts
system.mem_ctrls.perBankRdBursts::28             7168                       # Per bank write bursts
system.mem_ctrls.perBankRdBursts::29             7168                       # Per bank write bursts
system.mem_ctrls.perBankRdBursts::30             7168                       # Per bank write bursts
system.mem_ctrls.perBankRdBursts::31             7169                       # Per bank write bursts
system.mem_ctrls.perBankRdBursts::32             7170                       # Per bank write bursts
system.mem_ctrls.perBankRdBursts::33             7168                       # Per bank write bursts
system.mem_ctrls.perBankRdBursts::34             7168                       # Per bank write bursts
system.mem_ctrls.perBankRdBursts::35             7168                       # Per bank write bursts
system.mem_ctrls.perBankRdBursts::36             7168                       # Per bank write bursts
system.mem_ctrls.perBankRdBursts::37             7168                       # Per bank write bursts
system.mem_ctrls.perBankRdBursts::38             7168                       # Per bank write bursts
system.mem_ctrls.perBankRdBursts::39             7169                       # Per bank write bursts
system.mem_ctrls.perBankRdBursts::40             7170                       # Per bank write bursts
system.mem_ctrls.perBankRdBursts::41             7168                       # Per bank write bursts
system.mem_ctrls.perBankRdBursts::42             7168                       # Per bank write bursts
system.mem_ctrls.perBankRdBursts::43             7168                       # Per bank write bursts
system.mem_ctrls.perBankRdBursts::44             7168                       # Per bank write bursts
system.mem_ctrls.perBankRdBursts::45             7168                       # Per bank write bursts
system.mem_ctrls.perBankRdBursts::46             7168                       # Per bank write bursts
system.mem_ctrls.perBankRdBursts::47             7169                       # Per bank write bursts
system.mem_ctrls.perBankRdBursts::48             7170                       # Per bank write bursts
system.mem_ctrls.perBankRdBursts::49             7168                       # Per bank write bursts
system.mem_ctrls.perBankRdBursts::50             7168                       # Per bank write bursts
system.mem_ctrls.perBankRdBursts::51             7168                       # Per bank write bursts
system.mem_ctrls.perBankRdBursts::52             7168                       # Per bank write bursts
system.mem_ctrls.perBankRdBursts::53             7168                       # Per bank write bursts
system.mem_ctrls.perBankRdBursts::54             7223                       # Per bank write bursts
system.mem_ctrls.perBankRdBursts::55             7297                       # Per bank write bursts
system.mem_ctrls.perBankRdBursts::56             7298                       # Per bank write bursts
system.mem_ctrls.perBankRdBursts::57             7164                       # Per bank write bursts
system.mem_ctrls.perBankRdBursts::58             7095                       # Per bank write bursts
system.mem_ctrls.perBankRdBursts::59             7168                       # Per bank write bursts
system.mem_ctrls.perBankRdBursts::60             7168                       # Per bank write bursts
system.mem_ctrls.perBankRdBursts::61             7181                       # Per bank write bursts
system.mem_ctrls.perBankRdBursts::62             7223                       # Per bank write bursts
system.mem_ctrls.perBankRdBursts::63             7297                       # Per bank write bursts
system.mem_ctrls.perBankWrBursts::0              7168                       # Per bank write bursts
system.mem_ctrls.perBankWrBursts::1              7168                       # Per bank write bursts
system.mem_ctrls.perBankWrBursts::2              7168                       # Per bank write bursts
system.mem_ctrls.perBankWrBursts::3              7168                       # Per bank write bursts
system.mem_ctrls.perBankWrBursts::4              7168                       # Per bank write bursts
system.mem_ctrls.perBankWrBursts::5              7168                       # Per bank write bursts
system.mem_ctrls.perBankWrBursts::6              7168                       # Per bank write bursts
system.mem_ctrls.perBankWrBursts::7              7168                       # Per bank write bursts
system.mem_ctrls.perBankWrBursts::8              7168                       # Per bank write bursts
system.mem_ctrls.perBankWrBursts::9              7168                       # Per bank write bursts
system.mem_ctrls.perBankWrBursts::10             7168                       # Per bank write bursts
system.mem_ctrls.perBankWrBursts::11             7168                       # Per bank write bursts
system.mem_ctrls.perBankWrBursts::12             7168                       # Per bank write bursts
system.mem_ctrls.perBankWrBursts::13             7168                       # Per bank write bursts
system.mem_ctrls.perBankWrBursts::14             7201                       # Per bank write bursts
system.mem_ctrls.perBankWrBursts::15             7244                       # Per bank write bursts
system.mem_ctrls.perBankWrBursts::16             7245                       # Per bank write bursts
system.mem_ctrls.perBankWrBursts::17             7191                       # Per bank write bursts
system.mem_ctrls.perBankWrBursts::18             7033                       # Per bank write bursts
system.mem_ctrls.perBankWrBursts::19             7092                       # Per bank write bursts
system.mem_ctrls.perBankWrBursts::20             7091                       # Per bank write bursts
system.mem_ctrls.perBankWrBursts::21             7091                       # Per bank write bursts
system.mem_ctrls.perBankWrBursts::22             7146                       # Per bank write bursts
system.mem_ctrls.perBankWrBursts::23             7220                       # Per bank write bursts
system.mem_ctrls.perBankWrBursts::24             7219                       # Per bank write bursts
system.mem_ctrls.perBankWrBursts::25             7208                       # Per bank write bursts
system.mem_ctrls.perBankWrBursts::26             7146                       # Per bank write bursts
system.mem_ctrls.perBankWrBursts::27             7220                       # Per bank write bursts
system.mem_ctrls.perBankWrBursts::28             7219                       # Per bank write bursts
system.mem_ctrls.perBankWrBursts::29             7219                       # Per bank write bursts
system.mem_ctrls.perBankWrBursts::30             7274                       # Per bank write bursts
system.mem_ctrls.perBankWrBursts::31             7348                       # Per bank write bursts
system.mem_ctrls.perBankWrBursts::32             7303                       # Per bank write bursts
system.mem_ctrls.perBankWrBursts::33             7219                       # Per bank write bursts
system.mem_ctrls.perBankWrBursts::34             7274                       # Per bank write bursts
system.mem_ctrls.perBankWrBursts::35             7307                       # Per bank write bursts
system.mem_ctrls.perBankWrBursts::36             7118                       # Per bank write bursts
system.mem_ctrls.perBankWrBursts::37             7091                       # Per bank write bursts
system.mem_ctrls.perBankWrBursts::38             7146                       # Per bank write bursts
system.mem_ctrls.perBankWrBursts::39             7220                       # Per bank write bursts
system.mem_ctrls.perBankWrBursts::40             7219                       # Per bank write bursts
system.mem_ctrls.perBankWrBursts::41             7155                       # Per bank write bursts
system.mem_ctrls.perBankWrBursts::42             7157                       # Per bank write bursts
system.mem_ctrls.perBankWrBursts::43             7244                       # Per bank write bursts
system.mem_ctrls.perBankWrBursts::44             7245                       # Per bank write bursts
system.mem_ctrls.perBankWrBursts::45             7245                       # Per bank write bursts
system.mem_ctrls.perBankWrBursts::46             7267                       # Per bank write bursts
system.mem_ctrls.perBankWrBursts::47             7296                       # Per bank write bursts
system.mem_ctrls.perBankWrBursts::48             7263                       # Per bank write bursts
system.mem_ctrls.perBankWrBursts::49             7168                       # Per bank write bursts
system.mem_ctrls.perBankWrBursts::50             7168                       # Per bank write bursts
system.mem_ctrls.perBankWrBursts::51             7168                       # Per bank write bursts
system.mem_ctrls.perBankWrBursts::52             7168                       # Per bank write bursts
system.mem_ctrls.perBankWrBursts::53             7168                       # Per bank write bursts
system.mem_ctrls.perBankWrBursts::54             7168                       # Per bank write bursts
system.mem_ctrls.perBankWrBursts::55             7168                       # Per bank write bursts
system.mem_ctrls.perBankWrBursts::56             7168                       # Per bank write bursts
system.mem_ctrls.perBankWrBursts::57             7168                       # Per bank write bursts
system.mem_ctrls.perBankWrBursts::58             7168                       # Per bank write bursts
system.mem_ctrls.perBankWrBursts::59             7168                       # Per bank write bursts
system.mem_ctrls.perBankWrBursts::60             7168                       # Per bank write bursts
system.mem_ctrls.perBankWrBursts::61             7168                       # Per bank write bursts
system.mem_ctrls.perBankWrBursts::62             7168                       # Per bank write bursts
system.mem_ctrls.perBankWrBursts::63             7168                       # Per bank write bursts
system.mem_ctrls.numRdRetry                         0                       # Number of times read queue was full causing retry
system.mem_ctrls.numWrRetry                         0                       # Number of times write queue was full causing retry
system.mem_ctrls.totGap                    7777366000                       # Total gap between requests
system.mem_ctrls.readPktSize::0                     0                       # Read request sizes (log2)
system.mem_ctrls.readPktSize::1                     0                       # Read request sizes (log2)
system.mem_ctrls.readPktSize::2                     0                       # Read request sizes (log2)
system.mem_ctrls.readPktSize::3                     0                       # Read request sizes (log2)
system.mem_ctrls.readPktSize::4                     0                       # Read request sizes (log2)
system.mem_ctrls.readPktSize::5                     0                       # Read request sizes (log2)
system.mem_ctrls.readPktSize::6                460305                       # Read request sizes (log2)
system.mem_ctrls.writePktSize::0                    0                       # Write request sizes (log2)
system.mem_ctrls.writePktSize::1                    0                       # Write request sizes (log2)
system.mem_ctrls.writePktSize::2                    0                       # Write request sizes (log2)
system.mem_ctrls.writePktSize::3                    0                       # Write request sizes (log2)
system.mem_ctrls.writePktSize::4                    0                       # Write request sizes (log2)
system.mem_ctrls.writePktSize::5                    0                       # Write request sizes (log2)
system.mem_ctrls.writePktSize::6               460084                       # Write request sizes (log2)
system.mem_ctrls.rdQLenPdf::0                   35076                       # What read queue length does an incoming req see
system.mem_ctrls.rdQLenPdf::1                   52127                       # What read queue length does an incoming req see
system.mem_ctrls.rdQLenPdf::2                   98724                       # What read queue length does an incoming req see
system.mem_ctrls.rdQLenPdf::3                  111550                       # What read queue length does an incoming req see
system.mem_ctrls.rdQLenPdf::4                   50349                       # What read queue length does an incoming req see
system.mem_ctrls.rdQLenPdf::5                   45782                       # What read queue length does an incoming req see
system.mem_ctrls.rdQLenPdf::6                   36404                       # What read queue length does an incoming req see
system.mem_ctrls.rdQLenPdf::7                   30185                       # What read queue length does an incoming req see
system.mem_ctrls.rdQLenPdf::8                      27                       # What read queue length does an incoming req see
system.mem_ctrls.rdQLenPdf::9                      20                       # What read queue length does an incoming req see
system.mem_ctrls.rdQLenPdf::10                     15                       # What read queue length does an incoming req see
system.mem_ctrls.rdQLenPdf::11                     10                       # What read queue length does an incoming req see
system.mem_ctrls.rdQLenPdf::12                     12                       # What read queue length does an incoming req see
system.mem_ctrls.rdQLenPdf::13                     15                       # What read queue length does an incoming req see
system.mem_ctrls.rdQLenPdf::14                      4                       # What read queue length does an incoming req see
system.mem_ctrls.rdQLenPdf::15                      1                       # What read queue length does an incoming req see
system.mem_ctrls.rdQLenPdf::16                      1                       # What read queue length does an incoming req see
system.mem_ctrls.rdQLenPdf::17                      1                       # What read queue length does an incoming req see
system.mem_ctrls.rdQLenPdf::18                      1                       # What read queue length does an incoming req see
system.mem_ctrls.rdQLenPdf::19                      1                       # What read queue length does an incoming req see
system.mem_ctrls.rdQLenPdf::20                      0                       # What read queue length does an incoming req see
system.mem_ctrls.rdQLenPdf::21                      0                       # What read queue length does an incoming req see
system.mem_ctrls.rdQLenPdf::22                      0                       # What read queue length does an incoming req see
system.mem_ctrls.rdQLenPdf::23                      0                       # What read queue length does an incoming req see
system.mem_ctrls.rdQLenPdf::24                      0                       # What read queue length does an incoming req see
system.mem_ctrls.rdQLenPdf::25                      0                       # What read queue length does an incoming req see
system.mem_ctrls.rdQLenPdf::26                      0                       # What read queue length does an incoming req see
system.mem_ctrls.rdQLenPdf::27                      0                       # What read queue length does an incoming req see
system.mem_ctrls.rdQLenPdf::28                      0                       # What read queue length does an incoming req see
system.mem_ctrls.rdQLenPdf::29                      0                       # What read queue length does an incoming req see
system.mem_ctrls.rdQLenPdf::30                      0                       # What read queue length does an incoming req see
system.mem_ctrls.rdQLenPdf::31                      0                       # What read queue length does an incoming req see
system.mem_ctrls.wrQLenPdf::0                       1                       # What write queue length does an incoming req see
system.mem_ctrls.wrQLenPdf::1                       1                       # What write queue length does an incoming req see
system.mem_ctrls.wrQLenPdf::2                       1                       # What write queue length does an incoming req see
system.mem_ctrls.wrQLenPdf::3                       1                       # What write queue length does an incoming req see
system.mem_ctrls.wrQLenPdf::4                       1                       # What write queue length does an incoming req see
system.mem_ctrls.wrQLenPdf::5                       1                       # What write queue length does an incoming req see
system.mem_ctrls.wrQLenPdf::6                       1                       # What write queue length does an incoming req see
system.mem_ctrls.wrQLenPdf::7                       1                       # What write queue length does an incoming req see
system.mem_ctrls.wrQLenPdf::8                       1                       # What write queue length does an incoming req see
system.mem_ctrls.wrQLenPdf::9                       1                       # What write queue length does an incoming req see
system.mem_ctrls.wrQLenPdf::10                      1                       # What write queue length does an incoming req see
system.mem_ctrls.wrQLenPdf::11                      1                       # What write queue length does an incoming req see
system.mem_ctrls.wrQLenPdf::12                      1                       # What write queue length does an incoming req see
system.mem_ctrls.wrQLenPdf::13                      1                       # What write queue length does an incoming req see
system.mem_ctrls.wrQLenPdf::14                      1                       # What write queue length does an incoming req see
system.mem_ctrls.wrQLenPdf::15                      1                       # What write queue length does an incoming req see
system.mem_ctrls.wrQLenPdf::16                      1                       # What write queue length does an incoming req see
system.mem_ctrls.wrQLenPdf::17                      1                       # What write queue length does an incoming req see
system.mem_ctrls.wrQLenPdf::18                      2                       # What write queue length does an incoming req see
system.mem_ctrls.wrQLenPdf::19                     71                       # What write queue length does an incoming req see
system.mem_ctrls.wrQLenPdf::20                    962                       # What write queue length does an incoming req see
system.mem_ctrls.wrQLenPdf::21                   4828                       # What write queue length does an incoming req see
system.mem_ctrls.wrQLenPdf::22                  14391                       # What write queue length does an incoming req see
system.mem_ctrls.wrQLenPdf::23                  27342                       # What write queue length does an incoming req see
system.mem_ctrls.wrQLenPdf::24                  37138                       # What write queue length does an incoming req see
system.mem_ctrls.wrQLenPdf::25                  46988                       # What write queue length does an incoming req see
system.mem_ctrls.wrQLenPdf::26                  61996                       # What write queue length does an incoming req see
system.mem_ctrls.wrQLenPdf::27                  59909                       # What write queue length does an incoming req see
system.mem_ctrls.wrQLenPdf::28                  45101                       # What write queue length does an incoming req see
system.mem_ctrls.wrQLenPdf::29                  37706                       # What write queue length does an incoming req see
system.mem_ctrls.wrQLenPdf::30                  33564                       # What write queue length does an incoming req see
system.mem_ctrls.wrQLenPdf::31                  33068                       # What write queue length does an incoming req see
system.mem_ctrls.wrQLenPdf::32                  35318                       # What write queue length does an incoming req see
system.mem_ctrls.wrQLenPdf::33                   9424                       # What write queue length does an incoming req see
system.mem_ctrls.wrQLenPdf::34                   5251                       # What write queue length does an incoming req see
system.mem_ctrls.wrQLenPdf::35                   3051                       # What write queue length does an incoming req see
system.mem_ctrls.wrQLenPdf::36                   1708                       # What write queue length does an incoming req see
system.mem_ctrls.wrQLenPdf::37                    721                       # What write queue length does an incoming req see
system.mem_ctrls.wrQLenPdf::38                    443                       # What write queue length does an incoming req see
system.mem_ctrls.wrQLenPdf::39                    321                       # What write queue length does an incoming req see
system.mem_ctrls.wrQLenPdf::40                    198                       # What write queue length does an incoming req see
system.mem_ctrls.wrQLenPdf::41                    155                       # What write queue length does an incoming req see
system.mem_ctrls.wrQLenPdf::42                    131                       # What write queue length does an incoming req see
system.mem_ctrls.wrQLenPdf::43                     89                       # What write queue length does an incoming req see
system.mem_ctrls.wrQLenPdf::44                     71                       # What write queue length does an incoming req see
system.mem_ctrls.wrQLenPdf::45                     42                       # What write queue length does an incoming req see
system.mem_ctrls.wrQLenPdf::46                     31                       # What write queue length does an incoming req see
system.mem_ctrls.wrQLenPdf::47                     13                       # What write queue length does an incoming req see
system.mem_ctrls.wrQLenPdf::48                      9                       # What write queue length does an incoming req see
system.mem_ctrls.wrQLenPdf::49                      7                       # What write queue length does an incoming req see
system.mem_ctrls.wrQLenPdf::50                      7                       # What write queue length does an incoming req see
system.mem_ctrls.wrQLenPdf::51                      4                       # What write queue length does an incoming req see
system.mem_ctrls.wrQLenPdf::52                      2                       # What write queue length does an incoming req see
system.mem_ctrls.wrQLenPdf::53                      3                       # What write queue length does an incoming req see
system.mem_ctrls.wrQLenPdf::54                      1                       # What write queue length does an incoming req see
system.mem_ctrls.wrQLenPdf::55                      0                       # What write queue length does an incoming req see
system.mem_ctrls.wrQLenPdf::56                      0                       # What write queue length does an incoming req see
system.mem_ctrls.wrQLenPdf::57                      0                       # What write queue length does an incoming req see
system.mem_ctrls.wrQLenPdf::58                      0                       # What write queue length does an incoming req see
system.mem_ctrls.wrQLenPdf::59                      0                       # What write queue length does an incoming req see
system.mem_ctrls.wrQLenPdf::60                      0                       # What write queue length does an incoming req see
system.mem_ctrls.wrQLenPdf::61                      0                       # What write queue length does an incoming req see
system.mem_ctrls.wrQLenPdf::62                      0                       # What write queue length does an incoming req see
system.mem_ctrls.wrQLenPdf::63                      0                       # What write queue length does an incoming req see
system.mem_ctrls.bytesPerActivate::samples       135674                       # Bytes accessed per row activation
system.mem_ctrls.bytesPerActivate::mean    434.108348                       # Bytes accessed per row activation
system.mem_ctrls.bytesPerActivate::gmean   256.338173                       # Bytes accessed per row activation
system.mem_ctrls.bytesPerActivate::stdev   393.391806                       # Bytes accessed per row activation
system.mem_ctrls.bytesPerActivate::0-127        33526     24.71%     24.71% # Bytes accessed per row activation
system.mem_ctrls.bytesPerActivate::128-255        31090     22.92%     47.63% # Bytes accessed per row activation
system.mem_ctrls.bytesPerActivate::256-383        15460     11.39%     59.02% # Bytes accessed per row activation
system.mem_ctrls.bytesPerActivate::384-511         5557      4.10%     63.12% # Bytes accessed per row activation
system.mem_ctrls.bytesPerActivate::512-639         5132      3.78%     66.90% # Bytes accessed per row activation
system.mem_ctrls.bytesPerActivate::640-767         4608      3.40%     70.30% # Bytes accessed per row activation
system.mem_ctrls.bytesPerActivate::768-895         3776      2.78%     73.08% # Bytes accessed per row activation
system.mem_ctrls.bytesPerActivate::896-1023         2879      2.12%     75.20% # Bytes accessed per row activation
system.mem_ctrls.bytesPerActivate::1024-1151        33646     24.80%    100.00% # Bytes accessed per row activation
system.mem_ctrls.bytesPerActivate::total       135674                       # Bytes accessed per row activation
system.mem_ctrls.rdPerTurnAround::samples        28753                       # Reads before turning the bus around for writes
system.mem_ctrls.rdPerTurnAround::mean      16.008312                       # Reads before turning the bus around for writes
system.mem_ctrls.rdPerTurnAround::gmean     15.824698                       # Reads before turning the bus around for writes
system.mem_ctrls.rdPerTurnAround::stdev      2.393829                       # Reads before turning the bus around for writes
system.mem_ctrls.rdPerTurnAround::8-9             405      1.41%      1.41% # Reads before turning the bus around for writes
system.mem_ctrls.rdPerTurnAround::10-11           879      3.06%      4.47% # Reads before turning the bus around for writes
system.mem_ctrls.rdPerTurnAround::12-13          1290      4.49%      8.95% # Reads before turning the bus around for writes
system.mem_ctrls.rdPerTurnAround::14-15          4344     15.11%     24.06% # Reads before turning the bus around for writes
system.mem_ctrls.rdPerTurnAround::16-17         17810     61.94%     86.00% # Reads before turning the bus around for writes
system.mem_ctrls.rdPerTurnAround::18-19          1701      5.92%     91.92% # Reads before turning the bus around for writes
system.mem_ctrls.rdPerTurnAround::20-21          1029      3.58%     95.50% # Reads before turning the bus around for writes
system.mem_ctrls.rdPerTurnAround::22-23          1164      4.05%     99.54% # Reads before turning the bus around for writes
system.mem_ctrls.rdPerTurnAround::24-25            78      0.27%     99.82% # Reads before turning the bus around for writes
system.mem_ctrls.rdPerTurnAround::26-27            20      0.07%     99.89% # Reads before turning the bus around for writes
system.mem_ctrls.rdPerTurnAround::28-29            27      0.09%     99.98% # Reads before turning the bus around for writes
system.mem_ctrls.rdPerTurnAround::30-31             3      0.01%     99.99% # Reads before turning the bus around for writes
system.mem_ctrls.rdPerTurnAround::32-33             1      0.00%     99.99% # Reads before turning the bus around for writes
system.mem_ctrls.rdPerTurnAround::36-37             1      0.00%    100.00% # Reads before turning the bus around for writes
system.mem_ctrls.rdPerTurnAround::50-51             1      0.00%    100.00% # Reads before turning the bus around for writes
system.mem_ctrls.rdPerTurnAround::total         28753                       # Reads before turning the bus around for writes
system.mem_ctrls.wrPerTurnAround::samples        28753                       # Writes before turning the bus around for reads
system.mem_ctrls.wrPerTurnAround::mean             16                       # Writes before turning the bus around for reads
system.mem_ctrls.wrPerTurnAround::gmean     16.000000                       # Writes before turning the bus around for reads
system.mem_ctrls.wrPerTurnAround::16            28753    100.00%    100.00% # Writes before turning the bus around for reads
system.mem_ctrls.wrPerTurnAround::total         28753                       # Writes before turning the bus around for reads
system.mem_ctrls.totQLat                  25444957006                       # Total ticks spent queuing
system.mem_ctrls.totMemAccLat             34075657006                       # Total ticks spent from burst creation until serviced by the DRAM
system.mem_ctrls.totBusLat                 2301520000                       # Total ticks spent in databus transfers
system.mem_ctrls.avgQLat                     55278.47                       # Average queueing delay per DRAM burst
system.mem_ctrls.avgBusLat                    4999.99                       # Average bus latency per DRAM burst
system.mem_ctrls.avgMemAccLat                74028.43                       # Average memory access latency per DRAM burst
system.mem_ctrls.avgRdBW                      3787.83                       # Average DRAM read bandwidth in MiByte/s
system.mem_ctrls.avgWrBW                      3785.73                       # Average achieved write bandwidth in MiByte/s
system.mem_ctrls.avgRdBWSys                   3787.84                       # Average system read bandwidth in MiByte/s
system.mem_ctrls.avgWrBWSys                   3786.02                       # Average system write bandwidth in MiByte/s
system.mem_ctrls.peakBW                      12800.00                       # Theoretical peak bandwidth in MiByte/s
system.mem_ctrls.busUtil                        59.17                       # Data bus utilization in percentage
system.mem_ctrls.busUtilRead                    29.59                       # Data bus utilization in percentage for reads
system.mem_ctrls.busUtilWrite                   29.58                       # Data bus utilization in percentage for writes
system.mem_ctrls.avgRdQLen                       5.94                       # Average read queue length when enqueuing
system.mem_ctrls.avgWrQLen                      28.09                       # Average write queue length when enqueuing
system.mem_ctrls.readRowHits                   378012                       # Number of row buffer hits during reads
system.mem_ctrls.writeRowHits                  406651                       # Number of row buffer hits during writes
system.mem_ctrls.readRowHitRate                 82.12                       # Row buffer hit rate for reads
system.mem_ctrls.writeRowHitRate                88.39                       # Row buffer hit rate for writes
system.mem_ctrls.avgGap                       8450.09                       # Average gap between requests
system.mem_ctrls.pageHitRate                    85.25                       # Row buffer hit rate, read and write combined
system.mem_ctrls_0.actEnergy                132458760                       # Energy for activate commands per rank (pJ)
system.mem_ctrls_0.preEnergy                 72274125                       # Energy for precharge commands per rank (pJ)
system.mem_ctrls_0.readEnergy               449919600                       # Energy for read commands per rank (pJ)
system.mem_ctrls_0.writeEnergy              371589120                       # Energy for write commands per rank (pJ)
system.mem_ctrls_0.refreshEnergy            507542880                       # Energy for refresh commands per rank (pJ)
system.mem_ctrls_0.actBackEnergy           4599510120                       # Energy for active background per rank (pJ)
system.mem_ctrls_0.preBackEnergy            627904500                       # Energy for precharge background per rank (pJ)
system.mem_ctrls_0.totalEnergy             6761199105                       # Total energy per rank (pJ)
system.mem_ctrls_0.averagePower            870.062216                       # Core power per rank (mW)
system.mem_ctrls_0.memoryStateTime::IDLE    984008750                       # Time in different power states
system.mem_ctrls_0.memoryStateTime::REF     259480000                       # Time in different power states
system.mem_ctrls_0.memoryStateTime::PRE_PDN            0                       # Time in different power states
system.mem_ctrls_0.memoryStateTime::ACT    6533373000                       # Time in different power states
system.mem_ctrls_0.memoryStateTime::ACT_PDN            0                       # Time in different power states
system.mem_ctrls_1.actEnergy                126637560                       # Energy for activate commands per rank (pJ)
system.mem_ctrls_1.preEnergy                 69097875                       # Energy for precharge commands per rank (pJ)
system.mem_ctrls_1.readEnergy               451292400                       # Energy for read commands per rank (pJ)
system.mem_ctrls_1.writeEnergy              372295440                       # Energy for write commands per rank (pJ)
system.mem_ctrls_1.refreshEnergy            507542880                       # Energy for refresh commands per rank (pJ)
system.mem_ctrls_1.actBackEnergy           4562759655                       # Energy for active background per rank (pJ)
system.mem_ctrls_1.preBackEnergy            660141750                       # Energy for precharge background per rank (pJ)
system.mem_ctrls_1.totalEnergy             6749767560                       # Total energy per rank (pJ)
system.mem_ctrls_1.averagePower            868.591153                       # Core power per rank (mW)
system.mem_ctrls_1.memoryStateTime::IDLE   1035002500                       # Time in different power states
system.mem_ctrls_1.memoryStateTime::REF     259480000                       # Time in different power states
system.mem_ctrls_1.memoryStateTime::PRE_PDN            0                       # Time in different power states
system.mem_ctrls_1.memoryStateTime::ACT    6478514000                       # Time in different power states
system.mem_ctrls_1.memoryStateTime::ACT_PDN            0                       # Time in different power states
system.mem_ctrls_2.actEnergy                127839600                       # Energy for activate commands per rank (pJ)
system.mem_ctrls_2.preEnergy                 69753750                       # Energy for precharge commands per rank (pJ)
system.mem_ctrls_2.readEnergy               446737200                       # Energy for read commands per rank (pJ)
system.mem_ctrls_2.writeEnergy              369418320                       # Energy for write commands per rank (pJ)
system.mem_ctrls_2.refreshEnergy            507542880                       # Energy for refresh commands per rank (pJ)
system.mem_ctrls_2.actBackEnergy           4505772195                       # Energy for active background per rank (pJ)
system.mem_ctrls_2.preBackEnergy            710130750                       # Energy for precharge background per rank (pJ)
system.mem_ctrls_2.totalEnergy             6737194695                       # Total energy per rank (pJ)
system.mem_ctrls_2.averagePower            866.973218                       # Core power per rank (mW)
system.mem_ctrls_2.memoryStateTime::IDLE   1119638250                       # Time in different power states
system.mem_ctrls_2.memoryStateTime::REF     259480000                       # Time in different power states
system.mem_ctrls_2.memoryStateTime::PRE_PDN            0                       # Time in different power states
system.mem_ctrls_2.memoryStateTime::ACT    6391833000                       # Time in different power states
system.mem_ctrls_2.memoryStateTime::ACT_PDN            0                       # Time in different power states
system.mem_ctrls_3.actEnergy                130039560                       # Energy for activate commands per rank (pJ)
system.mem_ctrls_3.preEnergy                 70954125                       # Energy for precharge commands per rank (pJ)
system.mem_ctrls_3.readEnergy               447408000                       # Energy for read commands per rank (pJ)
system.mem_ctrls_3.writeEnergy              374569920                       # Energy for write commands per rank (pJ)
system.mem_ctrls_3.refreshEnergy            507542880                       # Energy for refresh commands per rank (pJ)
system.mem_ctrls_3.actBackEnergy           4510452465                       # Energy for active background per rank (pJ)
system.mem_ctrls_3.preBackEnergy            706052250                       # Energy for precharge background per rank (pJ)
system.mem_ctrls_3.totalEnergy             6747019200                       # Total energy per rank (pJ)
system.mem_ctrls_3.averagePower            868.232453                       # Core power per rank (mW)
system.mem_ctrls_3.memoryStateTime::IDLE   1117964000                       # Time in different power states
system.mem_ctrls_3.memoryStateTime::REF     259480000                       # Time in different power states
system.mem_ctrls_3.memoryStateTime::PRE_PDN            0                       # Time in different power states
system.mem_ctrls_3.memoryStateTime::ACT    6399691500                       # Time in different power states
system.mem_ctrls_3.memoryStateTime::ACT_PDN            0                       # Time in different power states
system.mem_ctrls_4.actEnergy                128293200                       # Energy for activate commands per rank (pJ)
system.mem_ctrls_4.preEnergy                 70001250                       # Energy for precharge commands per rank (pJ)
system.mem_ctrls_4.readEnergy               447306600                       # Energy for read commands per rank (pJ)
system.mem_ctrls_4.writeEnergy              372762000                       # Energy for write commands per rank (pJ)
system.mem_ctrls_4.refreshEnergy            507542880                       # Energy for refresh commands per rank (pJ)
system.mem_ctrls_4.actBackEnergy           4492744560                       # Energy for active background per rank (pJ)
system.mem_ctrls_4.preBackEnergy            721593000                       # Energy for precharge background per rank (pJ)
system.mem_ctrls_4.totalEnergy             6740243490                       # Total energy per rank (pJ)
system.mem_ctrls_4.averagePower            867.359134                       # Core power per rank (mW)
system.mem_ctrls_4.memoryStateTime::IDLE   1144790500                       # Time in different power states
system.mem_ctrls_4.memoryStateTime::REF     259480000                       # Time in different power states
system.mem_ctrls_4.memoryStateTime::PRE_PDN            0                       # Time in different power states
system.mem_ctrls_4.memoryStateTime::ACT    6369136500                       # Time in different power states
system.mem_ctrls_4.memoryStateTime::ACT_PDN            0                       # Time in different power states
system.mem_ctrls_5.actEnergy                125503560                       # Energy for activate commands per rank (pJ)
system.mem_ctrls_5.preEnergy                 68479125                       # Energy for precharge commands per rank (pJ)
system.mem_ctrls_5.readEnergy               447306600                       # Energy for read commands per rank (pJ)
system.mem_ctrls_5.writeEnergy              374401440                       # Energy for write commands per rank (pJ)
system.mem_ctrls_5.refreshEnergy            507542880                       # Energy for refresh commands per rank (pJ)
system.mem_ctrls_5.actBackEnergy           4483966275                       # Energy for active background per rank (pJ)
system.mem_ctrls_5.preBackEnergy            729281250                       # Energy for precharge background per rank (pJ)
system.mem_ctrls_5.totalEnergy             6736481130                       # Total energy per rank (pJ)
system.mem_ctrls_5.averagePower            866.877210                       # Core power per rank (mW)
system.mem_ctrls_5.memoryStateTime::IDLE   1154829500                       # Time in different power states
system.mem_ctrls_5.memoryStateTime::REF     259480000                       # Time in different power states
system.mem_ctrls_5.memoryStateTime::PRE_PDN            0                       # Time in different power states
system.mem_ctrls_5.memoryStateTime::ACT    6360799500                       # Time in different power states
system.mem_ctrls_5.memoryStateTime::ACT_PDN            0                       # Time in different power states
system.mem_ctrls_6.actEnergy                125904240                       # Energy for activate commands per rank (pJ)
system.mem_ctrls_6.preEnergy                 68697750                       # Energy for precharge commands per rank (pJ)
system.mem_ctrls_6.readEnergy               448734000                       # Energy for read commands per rank (pJ)
system.mem_ctrls_6.writeEnergy              371880720                       # Energy for write commands per rank (pJ)
system.mem_ctrls_6.refreshEnergy            507542880                       # Energy for refresh commands per rank (pJ)
system.mem_ctrls_6.actBackEnergy           4514265765                       # Energy for active background per rank (pJ)
system.mem_ctrls_6.preBackEnergy            702680250                       # Energy for precharge background per rank (pJ)
system.mem_ctrls_6.totalEnergy             6739705605                       # Total energy per rank (pJ)
system.mem_ctrls_6.averagePower            867.296334                       # Core power per rank (mW)
system.mem_ctrls_6.memoryStateTime::IDLE   1108596500                       # Time in different power states
system.mem_ctrls_6.memoryStateTime::REF     259480000                       # Time in different power states
system.mem_ctrls_6.memoryStateTime::PRE_PDN            0                       # Time in different power states
system.mem_ctrls_6.memoryStateTime::ACT    6409046500                       # Time in different power states
system.mem_ctrls_6.memoryStateTime::ACT_PDN            0                       # Time in different power states
system.mem_ctrls_7.actEnergy                128255400                       # Energy for activate commands per rank (pJ)
system.mem_ctrls_7.preEnergy                 69980625                       # Energy for precharge commands per rank (pJ)
system.mem_ctrls_7.readEnergy               448429800                       # Energy for read commands per rank (pJ)
system.mem_ctrls_7.writeEnergy              371589120                       # Energy for write commands per rank (pJ)
system.mem_ctrls_7.refreshEnergy            507542880                       # Energy for refresh commands per rank (pJ)
system.mem_ctrls_7.actBackEnergy           4467794805                       # Energy for active background per rank (pJ)
system.mem_ctrls_7.preBackEnergy            743444250                       # Energy for precharge background per rank (pJ)
system.mem_ctrls_7.totalEnergy             6737036880                       # Total energy per rank (pJ)
system.mem_ctrls_7.averagePower            866.952910                       # Core power per rank (mW)
system.mem_ctrls_7.memoryStateTime::IDLE   1175749000                       # Time in different power states
system.mem_ctrls_7.memoryStateTime::REF     259480000                       # Time in different power states
system.mem_ctrls_7.memoryStateTime::PRE_PDN            0                       # Time in different power states
system.mem_ctrls_7.memoryStateTime::ACT    6339741500                       # Time in different power states
system.mem_ctrls_7.memoryStateTime::ACT_PDN            0                       # Time in different power states
system.cpu_voltage_domain.voltage                   1                       # Voltage in Volts
system.cpu_clk_domain.clock                       500                       # Clock period in ticks
system.cpu0.apic_clk_domain.clock                8000                       # Clock period in ticks
system.cpu0.workload.num_syscalls                   0                       # Number of system calls
system.cpu0.numCycles                               0                       # number of cpu cycles simulated
system.cpu0.numWorkItemsStarted                     0                       # number of work items this cpu started
system.cpu0.numWorkItemsCompleted                   0                       # number of work items this cpu completed
system.cpu0.committedInsts                          0                       # Number of instructions committed
system.cpu0.committedOps                            0                       # Number of ops (including micro ops) committed
system.cpu0.num_int_alu_accesses                    0                       # Number of integer alu accesses
system.cpu0.num_fp_alu_accesses                     0                       # Number of float alu accesses
system.cpu0.num_func_calls                          0                       # number of times a function call or return occured
system.cpu0.num_conditional_control_insts            0                       # number of instructions that are conditional controls
system.cpu0.num_int_insts                           0                       # number of integer instructions
system.cpu0.num_fp_insts                            0                       # number of float instructions
system.cpu0.num_int_register_reads                  0                       # number of times the integer registers were read
system.cpu0.num_int_register_writes                 0                       # number of times the integer registers were written
system.cpu0.num_fp_register_reads                   0                       # number of times the floating registers were read
system.cpu0.num_fp_register_writes                  0                       # number of times the floating registers were written
system.cpu0.num_mem_refs                            0                       # number of memory refs
system.cpu0.num_load_insts                          0                       # Number of load instructions
system.cpu0.num_store_insts                         0                       # Number of store instructions
system.cpu0.num_idle_cycles                         0                       # Number of idle cycles
system.cpu0.num_busy_cycles                         0                       # Number of busy cycles
system.cpu0.not_idle_fraction                       1                       # Percentage of non-idle cycles
system.cpu0.idle_fraction                           0                       # Percentage of idle cycles
system.cpu0.op_class::No_OpClass                    0                       # Class of executed instruction
system.cpu0.op_class::IntAlu                        0                       # Class of executed instruction
system.cpu0.op_class::IntMult                       0                       # Class of executed instruction
system.cpu0.op_class::IntDiv                        0                       # Class of executed instruction
system.cpu0.op_class::FloatAdd                      0                       # Class of executed instruction
system.cpu0.op_class::FloatCmp                      0                       # Class of executed instruction
system.cpu0.op_class::FloatCvt                      0                       # Class of executed instruction
system.cpu0.op_class::FloatMult                     0                       # Class of executed instruction
system.cpu0.op_class::FloatDiv                      0                       # Class of executed instruction
system.cpu0.op_class::FloatSqrt                     0                       # Class of executed instruction
system.cpu0.op_class::SimdAdd                       0                       # Class of executed instruction
system.cpu0.op_class::SimdAddAcc                    0                       # Class of executed instruction
system.cpu0.op_class::SimdAlu                       0                       # Class of executed instruction
system.cpu0.op_class::SimdCmp                       0                       # Class of executed instruction
system.cpu0.op_class::SimdCvt                       0                       # Class of executed instruction
system.cpu0.op_class::SimdMisc                      0                       # Class of executed instruction
system.cpu0.op_class::SimdMult                      0                       # Class of executed instruction
system.cpu0.op_class::SimdMultAcc                   0                       # Class of executed instruction
system.cpu0.op_class::SimdShift                     0                       # Class of executed instruction
system.cpu0.op_class::SimdShiftAcc                  0                       # Class of executed instruction
system.cpu0.op_class::SimdSqrt                      0                       # Class of executed instruction
system.cpu0.op_class::SimdFloatAdd                  0                       # Class of executed instruction
system.cpu0.op_class::SimdFloatAlu                  0                       # Class of executed instruction
system.cpu0.op_class::SimdFloatCmp                  0                       # Class of executed instruction
system.cpu0.op_class::SimdFloatCvt                  0                       # Class of executed instruction
system.cpu0.op_class::SimdFloatDiv                  0                       # Class of executed instruction
system.cpu0.op_class::SimdFloatMisc                 0                       # Class of executed instruction
system.cpu0.op_class::SimdFloatMult                 0                       # Class of executed instruction
system.cpu0.op_class::SimdFloatMultAcc              0                       # Class of executed instruction
system.cpu0.op_class::SimdFloatSqrt                 0                       # Class of executed instruction
system.cpu0.op_class::MemRead                       0                       # Class of executed instruction
system.cpu0.op_class::MemWrite                      0                       # Class of executed instruction
system.cpu0.op_class::IprAccess                     0                       # Class of executed instruction
system.cpu0.op_class::InstPrefetch                  0                       # Class of executed instruction
system.cpu0.op_class::total                         0                       # Class of executed instruction
system.cpu0.dcache.tags.replacements            57672                       # number of replacements
system.cpu0.dcache.tags.tagsinuse                1024                       # Cycle average of tags in use
system.cpu0.dcache.tags.total_refs             403623                       # Total number of references to valid blocks.
system.cpu0.dcache.tags.sampled_refs            57672                       # Sample count of references to valid blocks.
system.cpu0.dcache.tags.avg_refs             6.998596                       # Average number of references to valid blocks.
system.cpu0.dcache.tags.warmup_cycle                0                       # Cycle when the warmup percentage was hit.
system.cpu0.dcache.tags.occ_blocks::cpu0.data     8.686502                       # Average occupied blocks per requestor
system.cpu0.dcache.tags.occ_blocks::switch_cpus0.data  1015.313498                       # Average occupied blocks per requestor
system.cpu0.dcache.tags.occ_percent::cpu0.data     0.008483                       # Average percentage of cache occupancy
system.cpu0.dcache.tags.occ_percent::switch_cpus0.data     0.991517                       # Average percentage of cache occupancy
system.cpu0.dcache.tags.occ_percent::total            1                       # Average percentage of cache occupancy
system.cpu0.dcache.tags.occ_task_id_blocks::1024         1024                       # Occupied blocks per task id
system.cpu0.dcache.tags.age_task_id_blocks_1024::0           76                       # Occupied blocks per task id
system.cpu0.dcache.tags.age_task_id_blocks_1024::1          682                       # Occupied blocks per task id
system.cpu0.dcache.tags.age_task_id_blocks_1024::2          266                       # Occupied blocks per task id
system.cpu0.dcache.tags.occ_task_id_percent::1024            1                       # Percentage of cache occupancy per task id
system.cpu0.dcache.tags.tag_accesses           980272                       # Number of tag accesses
system.cpu0.dcache.tags.data_accesses          980272                       # Number of data accesses
system.cpu0.dcache.ReadReq_hits::switch_cpus0.data           17                       # number of ReadReq hits
system.cpu0.dcache.ReadReq_hits::total             17                       # number of ReadReq hits
system.cpu0.dcache.WriteReq_hits::switch_cpus0.data       403609                       # number of WriteReq hits
system.cpu0.dcache.WriteReq_hits::total        403609                       # number of WriteReq hits
system.cpu0.dcache.demand_hits::switch_cpus0.data       403626                       # number of demand (read+write) hits
system.cpu0.dcache.demand_hits::total          403626                       # number of demand (read+write) hits
system.cpu0.dcache.overall_hits::switch_cpus0.data       403626                       # number of overall hits
system.cpu0.dcache.overall_hits::total         403626                       # number of overall hits
system.cpu0.dcache.ReadReq_misses::switch_cpus0.data           15                       # number of ReadReq misses
system.cpu0.dcache.ReadReq_misses::total           15                       # number of ReadReq misses
system.cpu0.dcache.WriteReq_misses::switch_cpus0.data        57659                       # number of WriteReq misses
system.cpu0.dcache.WriteReq_misses::total        57659                       # number of WriteReq misses
system.cpu0.dcache.demand_misses::switch_cpus0.data        57674                       # number of demand (read+write) misses
system.cpu0.dcache.demand_misses::total         57674                       # number of demand (read+write) misses
system.cpu0.dcache.overall_misses::switch_cpus0.data        57674                       # number of overall misses
system.cpu0.dcache.overall_misses::total        57674                       # number of overall misses
system.cpu0.dcache.ReadReq_miss_latency::switch_cpus0.data      2387000                       # number of ReadReq miss cycles
system.cpu0.dcache.ReadReq_miss_latency::total      2387000                       # number of ReadReq miss cycles
system.cpu0.dcache.WriteReq_miss_latency::switch_cpus0.data   7365866000                       # number of WriteReq miss cycles
system.cpu0.dcache.WriteReq_miss_latency::total   7365866000                       # number of WriteReq miss cycles
system.cpu0.dcache.demand_miss_latency::switch_cpus0.data   7368253000                       # number of demand (read+write) miss cycles
system.cpu0.dcache.demand_miss_latency::total   7368253000                       # number of demand (read+write) miss cycles
system.cpu0.dcache.overall_miss_latency::switch_cpus0.data   7368253000                       # number of overall miss cycles
system.cpu0.dcache.overall_miss_latency::total   7368253000                       # number of overall miss cycles
system.cpu0.dcache.ReadReq_accesses::switch_cpus0.data           32                       # number of ReadReq accesses(hits+misses)
system.cpu0.dcache.ReadReq_accesses::total           32                       # number of ReadReq accesses(hits+misses)
system.cpu0.dcache.WriteReq_accesses::switch_cpus0.data       461268                       # number of WriteReq accesses(hits+misses)
system.cpu0.dcache.WriteReq_accesses::total       461268                       # number of WriteReq accesses(hits+misses)
system.cpu0.dcache.demand_accesses::switch_cpus0.data       461300                       # number of demand (read+write) accesses
system.cpu0.dcache.demand_accesses::total       461300                       # number of demand (read+write) accesses
system.cpu0.dcache.overall_accesses::switch_cpus0.data       461300                       # number of overall (read+write) accesses
system.cpu0.dcache.overall_accesses::total       461300                       # number of overall (read+write) accesses
system.cpu0.dcache.ReadReq_miss_rate::switch_cpus0.data     0.468750                       # miss rate for ReadReq accesses
system.cpu0.dcache.ReadReq_miss_rate::total     0.468750                       # miss rate for ReadReq accesses
system.cpu0.dcache.WriteReq_miss_rate::switch_cpus0.data     0.125001                       # miss rate for WriteReq accesses
system.cpu0.dcache.WriteReq_miss_rate::total     0.125001                       # miss rate for WriteReq accesses
system.cpu0.dcache.demand_miss_rate::switch_cpus0.data     0.125025                       # miss rate for demand accesses
system.cpu0.dcache.demand_miss_rate::total     0.125025                       # miss rate for demand accesses
system.cpu0.dcache.overall_miss_rate::switch_cpus0.data     0.125025                       # miss rate for overall accesses
system.cpu0.dcache.overall_miss_rate::total     0.125025                       # miss rate for overall accesses
system.cpu0.dcache.ReadReq_avg_miss_latency::switch_cpus0.data 159133.333333                       # average ReadReq miss latency
system.cpu0.dcache.ReadReq_avg_miss_latency::total 159133.333333                       # average ReadReq miss latency
system.cpu0.dcache.WriteReq_avg_miss_latency::switch_cpus0.data 127748.764287                       # average WriteReq miss latency
system.cpu0.dcache.WriteReq_avg_miss_latency::total 127748.764287                       # average WriteReq miss latency
system.cpu0.dcache.demand_avg_miss_latency::switch_cpus0.data 127756.926865                       # average overall miss latency
system.cpu0.dcache.demand_avg_miss_latency::total 127756.926865                       # average overall miss latency
system.cpu0.dcache.overall_avg_miss_latency::switch_cpus0.data 127756.926865                       # average overall miss latency
system.cpu0.dcache.overall_avg_miss_latency::total 127756.926865                       # average overall miss latency
system.cpu0.dcache.blocked_cycles::no_mshrs            0                       # number of cycles access was blocked
system.cpu0.dcache.blocked_cycles::no_targets            0                       # number of cycles access was blocked
system.cpu0.dcache.blocked::no_mshrs                0                       # number of cycles access was blocked
system.cpu0.dcache.blocked::no_targets              0                       # number of cycles access was blocked
system.cpu0.dcache.avg_blocked_cycles::no_mshrs          nan                       # average number of cycles each access was blocked
system.cpu0.dcache.avg_blocked_cycles::no_targets          nan                       # average number of cycles each access was blocked
system.cpu0.dcache.fast_writes                      0                       # number of fast writes performed
system.cpu0.dcache.cache_copies                     0                       # number of cache copies performed
system.cpu0.dcache.writebacks::writebacks        57658                       # number of writebacks
system.cpu0.dcache.writebacks::total            57658                       # number of writebacks
system.cpu0.dcache.ReadReq_mshr_hits::switch_cpus0.data            1                       # number of ReadReq MSHR hits
system.cpu0.dcache.ReadReq_mshr_hits::total            1                       # number of ReadReq MSHR hits
system.cpu0.dcache.demand_mshr_hits::switch_cpus0.data            1                       # number of demand (read+write) MSHR hits
system.cpu0.dcache.demand_mshr_hits::total            1                       # number of demand (read+write) MSHR hits
system.cpu0.dcache.overall_mshr_hits::switch_cpus0.data            1                       # number of overall MSHR hits
system.cpu0.dcache.overall_mshr_hits::total            1                       # number of overall MSHR hits
system.cpu0.dcache.ReadReq_mshr_misses::switch_cpus0.data           14                       # number of ReadReq MSHR misses
system.cpu0.dcache.ReadReq_mshr_misses::total           14                       # number of ReadReq MSHR misses
system.cpu0.dcache.WriteReq_mshr_misses::switch_cpus0.data        57659                       # number of WriteReq MSHR misses
system.cpu0.dcache.WriteReq_mshr_misses::total        57659                       # number of WriteReq MSHR misses
system.cpu0.dcache.demand_mshr_misses::switch_cpus0.data        57673                       # number of demand (read+write) MSHR misses
system.cpu0.dcache.demand_mshr_misses::total        57673                       # number of demand (read+write) MSHR misses
system.cpu0.dcache.overall_mshr_misses::switch_cpus0.data        57673                       # number of overall MSHR misses
system.cpu0.dcache.overall_mshr_misses::total        57673                       # number of overall MSHR misses
system.cpu0.dcache.ReadReq_mshr_miss_latency::switch_cpus0.data      2246500                       # number of ReadReq MSHR miss cycles
system.cpu0.dcache.ReadReq_mshr_miss_latency::total      2246500                       # number of ReadReq MSHR miss cycles
system.cpu0.dcache.WriteReq_mshr_miss_latency::switch_cpus0.data   7263710000                       # number of WriteReq MSHR miss cycles
system.cpu0.dcache.WriteReq_mshr_miss_latency::total   7263710000                       # number of WriteReq MSHR miss cycles
[...]
system.switch_cpus7.commit.fp_insts                 0                       # Number of committed floating point instructions.
system.switch_cpus7.commit.int_insts          1122180                       # Number of committed integer instructions.
system.switch_cpus7.commit.function_calls            0                       # Number of function calls committed.
system.switch_cpus7.commit.op_class_0::No_OpClass            0      0.00%      0.00% # Class of committed instruction
system.switch_cpus7.commit.op_class_0::IntAlu       664145     59.18%     59.18% # Class of committed instruction
system.switch_cpus7.commit.op_class_0::IntMult            0      0.00%     59.18% # Class of committed instruction
system.switch_cpus7.commit.op_class_0::IntDiv            0      0.00%     59.18% # Class of committed instruction
system.switch_cpus7.commit.op_class_0::FloatAdd            0      0.00%     59.18% # Class of committed instruction
system.switch_cpus7.commit.op_class_0::FloatCmp            0      0.00%     59.18% # Class of committed instruction
system.switch_cpus7.commit.op_class_0::FloatCvt            0      0.00%     59.18% # Class of committed instruction
system.switch_cpus7.commit.op_class_0::FloatMult            0      0.00%     59.18% # Class of committed instruction
system.switch_cpus7.commit.op_class_0::FloatDiv            0      0.00%     59.18% # Class of committed instruction
system.switch_cpus7.commit.op_class_0::FloatSqrt            0      0.00%     59.18% # Class of committed instruction
system.switch_cpus7.commit.op_class_0::SimdAdd            0      0.00%     59.18% # Class of committed instruction
system.switch_cpus7.commit.op_class_0::SimdAddAcc            0      0.00%     59.18% # Class of committed instruction
system.switch_cpus7.commit.op_class_0::SimdAlu            0      0.00%     59.18% # Class of committed instruction
system.switch_cpus7.commit.op_class_0::SimdCmp            0      0.00%     59.18% # Class of committed instruction
system.switch_cpus7.commit.op_class_0::SimdCvt            0      0.00%     59.18% # Class of committed instruction
system.switch_cpus7.commit.op_class_0::SimdMisc            0      0.00%     59.18% # Class of committed instruction
system.switch_cpus7.commit.op_class_0::SimdMult            0      0.00%     59.18% # Class of committed instruction
system.switch_cpus7.commit.op_class_0::SimdMultAcc            0      0.00%     59.18% # Class of committed instruction
system.switch_cpus7.commit.op_class_0::SimdShift            0      0.00%     59.18% # Class of committed instruction
system.switch_cpus7.commit.op_class_0::SimdShiftAcc            0      0.00%     59.18% # Class of committed instruction
system.switch_cpus7.commit.op_class_0::SimdSqrt            0      0.00%     59.18% # Class of committed instruction
system.switch_cpus7.commit.op_class_0::SimdFloatAdd            0      0.00%     59.18% # Class of committed instruction
system.switch_cpus7.commit.op_class_0::SimdFloatAlu            0      0.00%     59.18% # Class of committed instruction
system.switch_cpus7.commit.op_class_0::SimdFloatCmp            0      0.00%     59.18% # Class of committed instruction
system.switch_cpus7.commit.op_class_0::SimdFloatCvt            0      0.00%     59.18% # Class of committed instruction
system.switch_cpus7.commit.op_class_0::SimdFloatDiv            0      0.00%     59.18% # Class of committed instruction
system.switch_cpus7.commit.op_class_0::SimdFloatMisc            0      0.00%     59.18% # Class of committed instruction
system.switch_cpus7.commit.op_class_0::SimdFloatMult            0      0.00%     59.18% # Class of committed instruction
system.switch_cpus7.commit.op_class_0::SimdFloatMultAcc            0      0.00%     59.18% # Class of committed instruction
system.switch_cpus7.commit.op_class_0::SimdFloatSqrt            0      0.00%     59.18% # Class of committed instruction
system.switch_cpus7.commit.op_class_0::MemRead            0      0.00%     59.18% # Class of committed instruction
system.switch_cpus7.commit.op_class_0::MemWrite       458035     40.82%    100.00% # Class of committed instruction
system.switch_cpus7.commit.op_class_0::IprAccess            0      0.00%    100.00% # Class of committed instruction
system.switch_cpus7.commit.op_class_0::InstPrefetch            0      0.00%    100.00% # Class of committed instruction
system.switch_cpus7.commit.op_class_0::total      1122180                       # Class of committed instruction
system.switch_cpus7.commit.bw_lim_events            4                       # number cycles where commit BW limit reached
system.switch_cpus7.rob.rob_reads            16677086                       # The number of ROB reads
system.switch_cpus7.rob.rob_writes            2244699                       # The number of ROB writes
system.switch_cpus7.committedInsts             984773                       # Number of Instructions Simulated
system.switch_cpus7.committedOps              1122180                       # Number of Ops (including micro ops) Simulated
system.switch_cpus7.cpi                     15.795294                       # CPI: Cycles Per Instruction
system.switch_cpus7.cpi_total               15.795294                       # CPI: Total CPI of All Threads
system.switch_cpus7.ipc                      0.063310                       # IPC: Instructions Per Cycle
system.switch_cpus7.ipc_total                0.063310                       # IPC: Total IPC of All Threads
system.switch_cpus7.int_regfile_reads         1557435                       # number of integer regfile reads
system.switch_cpus7.int_regfile_writes         641275                       # number of integer regfile writes
system.switch_cpus7.cc_regfile_reads           114505                       # number of cc regfile reads
system.switch_cpus7.cc_regfile_writes          137408                       # number of cc regfile writes
system.switch_cpus7.misc_regfile_reads         503893                       # number of misc regfile reads
system.tol2bus.trans_dist::ReadReq                128                       # Transaction distribution
system.tol2bus.trans_dist::ReadResp               128                       # Transaction distribution
system.tol2bus.trans_dist::Writeback           460172                       # Transaction distribution
system.tol2bus.trans_dist::ReadExReq           460179                       # Transaction distribution
system.tol2bus.trans_dist::ReadExResp          460172                       # Transaction distribution
system.tol2bus.pkt_count_system.cpu0.icache.mem_side::system.l2.cpu_side            4                       # Packet count per connected master and slave (bytes)
system.tol2bus.pkt_count_system.cpu0.dcache.mem_side::system.l2.cpu_side       173003                       # Packet count per connected master and slave (bytes)
system.tol2bus.pkt_count_system.cpu1.icache.mem_side::system.l2.cpu_side            4                       # Packet count per connected master and slave (bytes)
system.tol2bus.pkt_count_system.cpu1.dcache.mem_side::system.l2.cpu_side       171815                       # Packet count per connected master and slave (bytes)
system.tol2bus.pkt_count_system.cpu2.icache.mem_side::system.l2.cpu_side            4                       # Packet count per connected master and slave (bytes)
system.tol2bus.pkt_count_system.cpu2.dcache.mem_side::system.l2.cpu_side       174029                       # Packet count per connected master and slave (bytes)
system.tol2bus.pkt_count_system.cpu3.icache.mem_side::system.l2.cpu_side            4                       # Packet count per connected master and slave (bytes)
system.tol2bus.pkt_count_system.cpu3.dcache.mem_side::system.l2.cpu_side       171332                       # Packet count per connected master and slave (bytes)
system.tol2bus.pkt_count_system.cpu4.icache.mem_side::system.l2.cpu_side            4                       # Packet count per connected master and slave (bytes)
system.tol2bus.pkt_count_system.cpu4.dcache.mem_side::system.l2.cpu_side       173192                       # Packet count per connected master and slave (bytes)
system.tol2bus.pkt_count_system.cpu5.icache.mem_side::system.l2.cpu_side            4                       # Packet count per connected master and slave (bytes)
system.tol2bus.pkt_count_system.cpu5.dcache.mem_side::system.l2.cpu_side       174436                       # Packet count per connected master and slave (bytes)
system.tol2bus.pkt_count_system.cpu6.icache.mem_side::system.l2.cpu_side            4                       # Packet count per connected master and slave (bytes)
system.tol2bus.pkt_count_system.cpu6.dcache.mem_side::system.l2.cpu_side       171161                       # Packet count per connected master and slave (bytes)
system.tol2bus.pkt_count_system.cpu7.icache.mem_side::system.l2.cpu_side            4                       # Packet count per connected master and slave (bytes)
system.tol2bus.pkt_count_system.cpu7.dcache.mem_side::system.l2.cpu_side       171779                       # Packet count per connected master and slave (bytes)
system.tol2bus.pkt_count::total               1380779                       # Packet count per connected master and slave (bytes)
system.tol2bus.pkt_size_system.cpu0.icache.mem_side::system.l2.cpu_side          128                       # Cumulative packet size per connected master and slave (bytes)
system.tol2bus.pkt_size_system.cpu0.dcache.mem_side::system.l2.cpu_side      7381120                       # Cumulative packet size per connected master and slave (bytes)
system.tol2bus.pkt_size_system.cpu1.icache.mem_side::system.l2.cpu_side          128                       # Cumulative packet size per connected master and slave (bytes)
system.tol2bus.pkt_size_system.cpu1.dcache.mem_side::system.l2.cpu_side      7330432                       # Cumulative packet size per connected master and slave (bytes)
system.tol2bus.pkt_size_system.cpu2.icache.mem_side::system.l2.cpu_side          128                       # Cumulative packet size per connected master and slave (bytes)
system.tol2bus.pkt_size_system.cpu2.dcache.mem_side::system.l2.cpu_side      7424896                       # Cumulative packet size per connected master and slave (bytes)
system.tol2bus.pkt_size_system.cpu3.icache.mem_side::system.l2.cpu_side          128                       # Cumulative packet size per connected master and slave (bytes)
system.tol2bus.pkt_size_system.cpu3.dcache.mem_side::system.l2.cpu_side      7309824                       # Cumulative packet size per connected master and slave (bytes)
system.tol2bus.pkt_size_system.cpu4.icache.mem_side::system.l2.cpu_side          128                       # Cumulative packet size per connected master and slave (bytes)
system.tol2bus.pkt_size_system.cpu4.dcache.mem_side::system.l2.cpu_side      7389184                       # Cumulative packet size per connected master and slave (bytes)
system.tol2bus.pkt_size_system.cpu5.icache.mem_side::system.l2.cpu_side          128                       # Cumulative packet size per connected master and slave (bytes)
system.tol2bus.pkt_size_system.cpu5.dcache.mem_side::system.l2.cpu_side      7442304                       # Cumulative packet size per connected master and slave (bytes)
system.tol2bus.pkt_size_system.cpu6.icache.mem_side::system.l2.cpu_side          128                       # Cumulative packet size per connected master and slave (bytes)
system.tol2bus.pkt_size_system.cpu6.dcache.mem_side::system.l2.cpu_side      7302528                       # Cumulative packet size per connected master and slave (bytes)
system.tol2bus.pkt_size_system.cpu7.icache.mem_side::system.l2.cpu_side          128                       # Cumulative packet size per connected master and slave (bytes)
system.tol2bus.pkt_size_system.cpu7.dcache.mem_side::system.l2.cpu_side      7328896                       # Cumulative packet size per connected master and slave (bytes)
system.tol2bus.pkt_size::total               58910208                       # Cumulative packet size per connected master and slave (bytes)
system.tol2bus.snoops                               0                       # Total snoops (count)
system.tol2bus.snoop_fanout::samples           920509                       # Request fanout histogram
system.tol2bus.snoop_fanout::mean                  31                       # Request fanout histogram
system.tol2bus.snoop_fanout::stdev                  0                       # Request fanout histogram
system.tol2bus.snoop_fanout::underflows             0      0.00%      0.00% # Request fanout histogram
system.tol2bus.snoop_fanout::0                      0      0.00%      0.00% # Request fanout histogram
system.tol2bus.snoop_fanout::1                      0      0.00%      0.00% # Request fanout histogram
system.tol2bus.snoop_fanout::2                      0      0.00%      0.00% # Request fanout histogram
system.tol2bus.snoop_fanout::3                      0      0.00%      0.00% # Request fanout histogram
system.tol2bus.snoop_fanout::4                      0      0.00%      0.00% # Request fanout histogram
system.tol2bus.snoop_fanout::5                      0      0.00%      0.00% # Request fanout histogram
system.tol2bus.snoop_fanout::6                      0      0.00%      0.00% # Request fanout histogram
system.tol2bus.snoop_fanout::7                      0      0.00%      0.00% # Request fanout histogram
system.tol2bus.snoop_fanout::8                      0      0.00%      0.00% # Request fanout histogram
system.tol2bus.snoop_fanout::9                      0      0.00%      0.00% # Request fanout histogram
system.tol2bus.snoop_fanout::10                     0      0.00%      0.00% # Request fanout histogram
system.tol2bus.snoop_fanout::11                     0      0.00%      0.00% # Request fanout histogram
system.tol2bus.snoop_fanout::12                     0      0.00%      0.00% # Request fanout histogram
system.tol2bus.snoop_fanout::13                     0      0.00%      0.00% # Request fanout histogram
system.tol2bus.snoop_fanout::14                     0      0.00%      0.00% # Request fanout histogram
system.tol2bus.snoop_fanout::15                     0      0.00%      0.00% # Request fanout histogram
system.tol2bus.snoop_fanout::16                     0      0.00%      0.00% # Request fanout histogram
system.tol2bus.snoop_fanout::17                     0      0.00%      0.00% # Request fanout histogram
system.tol2bus.snoop_fanout::18                     0      0.00%      0.00% # Request fanout histogram
system.tol2bus.snoop_fanout::19                     0      0.00%      0.00% # Request fanout histogram
system.tol2bus.snoop_fanout::20                     0      0.00%      0.00% # Request fanout histogram
system.tol2bus.snoop_fanout::21                     0      0.00%      0.00% # Request fanout histogram
system.tol2bus.snoop_fanout::22                     0      0.00%      0.00% # Request fanout histogram
system.tol2bus.snoop_fanout::23                     0      0.00%      0.00% # Request fanout histogram
system.tol2bus.snoop_fanout::24                     0      0.00%      0.00% # Request fanout histogram
system.tol2bus.snoop_fanout::25                     0      0.00%      0.00% # Request fanout histogram
system.tol2bus.snoop_fanout::26                     0      0.00%      0.00% # Request fanout histogram
system.tol2bus.snoop_fanout::27                     0      0.00%      0.00% # Request fanout histogram
system.tol2bus.snoop_fanout::28                     0      0.00%      0.00% # Request fanout histogram
system.tol2bus.snoop_fanout::29                     0      0.00%      0.00% # Request fanout histogram
system.tol2bus.snoop_fanout::30                     0      0.00%      0.00% # Request fanout histogram
system.tol2bus.snoop_fanout::31                920509    100.00%    100.00% # Request fanout histogram
system.tol2bus.snoop_fanout::32                     0      0.00%    100.00% # Request fanout histogram
system.tol2bus.snoop_fanout::overflows              0      0.00%    100.00% # Request fanout histogram
system.tol2bus.snoop_fanout::min_value             31                       # Request fanout histogram
system.tol2bus.snoop_fanout::max_value             31                       # Request fanout histogram
system.tol2bus.snoop_fanout::total             920509                       # Request fanout histogram
system.tol2bus.reqLayer0.occupancy          920441469                       # Layer occupancy (ticks)
system.tol2bus.reqLayer0.utilization             11.8                       # Layer utilization (%)
system.tol2bus.respLayer0.occupancy              3000                       # Layer occupancy (ticks)
system.tol2bus.respLayer0.utilization             0.0                       # Layer utilization (%)
system.tol2bus.respLayer1.occupancy          94343000                       # Layer occupancy (ticks)
system.tol2bus.respLayer1.utilization             1.2                       # Layer utilization (%)
system.tol2bus.respLayer4.occupancy              3000                       # Layer occupancy (ticks)
system.tol2bus.respLayer4.utilization             0.0                       # Layer utilization (%)
system.tol2bus.respLayer5.occupancy          92300751                       # Layer occupancy (ticks)
system.tol2bus.respLayer5.utilization             1.2                       # Layer utilization (%)
system.tol2bus.respLayer8.occupancy              3000                       # Layer occupancy (ticks)
system.tol2bus.respLayer8.utilization             0.0                       # Layer utilization (%)
system.tol2bus.respLayer9.occupancy          93235750                       # Layer occupancy (ticks)
system.tol2bus.respLayer9.utilization             1.2                       # Layer utilization (%)
system.tol2bus.respLayer12.occupancy             3000                       # Layer occupancy (ticks)
system.tol2bus.respLayer12.utilization            0.0                       # Layer utilization (%)
system.tol2bus.respLayer13.occupancy         92113750                       # Layer occupancy (ticks)
system.tol2bus.respLayer13.utilization            1.2                       # Layer utilization (%)
system.tol2bus.respLayer16.occupancy             3000                       # Layer occupancy (ticks)
system.tol2bus.respLayer16.utilization            0.0                       # Layer utilization (%)
system.tol2bus.respLayer17.occupancy         92915001                       # Layer occupancy (ticks)
system.tol2bus.respLayer17.utilization            1.2                       # Layer utilization (%)
system.tol2bus.respLayer20.occupancy             3000                       # Layer occupancy (ticks)
system.tol2bus.respLayer20.utilization            0.0                       # Layer utilization (%)
system.tol2bus.respLayer21.occupancy         93611751                       # Layer occupancy (ticks)
system.tol2bus.respLayer21.utilization            1.2                       # Layer utilization (%)
system.tol2bus.respLayer24.occupancy             3000                       # Layer occupancy (ticks)
system.tol2bus.respLayer24.utilization            0.0                       # Layer utilization (%)
system.tol2bus.respLayer25.occupancy         92347501                       # Layer occupancy (ticks)
system.tol2bus.respLayer25.utilization            1.2                       # Layer utilization (%)
system.tol2bus.respLayer28.occupancy             3000                       # Layer occupancy (ticks)
system.tol2bus.respLayer28.utilization            0.0                       # Layer utilization (%)
system.tol2bus.respLayer29.occupancy         92980752                       # Layer occupancy (ticks)
system.tol2bus.respLayer29.utilization            1.2                       # Layer utilization (%)

---------- End Simulation Statistics   ----------
